resultados/05_resistencia_falta/monofasico/subalimentador/Master_MINI_1F.dss
Clear
New Circuit.MINI_1F basekv=7.967434 bus1="NODE#1987035704.2" phases=1 pu=0.990723 angle=-120.0350 frequency=60 r1=0.0 x1=0.0001
Redirect "linecodes_extraido.dss"
Redirect "transformadores_extraido.dss"
Redirect "linhas_extraido.dss"
Redirect "curvacarga_extraido.dss"
Redirect "cargas_extraido.dss"
Set mode=daily
Set Voltagebases=[0.22 0.24 13.8]
Calc Voltagebases
Set tolerance=0.0001
Set algorithm=newton
Set maxiterations=100
Set number=1
Set hour=0
Solve
