resultados/05_resistencia_falta/monofasico/subalimentador/cargas_extraido.dss
New "Load.BT_295227377_M1" bus1="NODE#420683413.1.2" phases=1 conn=Delta model=2 kv=0.240000000 kw = 0.0 pf=0.92 status=variable vmaxpu=1.5 vminpu=0.92 daily="COM2_17_DU"
New "Load.BT_295227377_M2" bus1="NODE#420683413.1.2" phases=1 conn=Delta model=3 kv=0.240000000 kw = 0.0 pf=0.92 status=variable vmaxpu=1.5 vminpu=0.92 daily="COM2_17_DU"
New "Load.BT_295227900_M1" bus1="NODE#420685225.2" phases=1 conn=Wye model=2 kv=0.120000000 kw = 0.0 pf=0.92 status=variable vmaxpu=1.5 vminpu=0.92 daily="RES2_18_DU"
New "Load.BT_295227900_M2" bus1="NODE#420685225.2" phases=1 conn=Wye model=3 kv=0.120000000 kw = 0.0 pf=0.92 status=variable vmaxpu=1.5 vminpu=0.92 daily="RES2_18_DU"
New "Load.BT_299766255_1_M1" bus1="NODE#420683413.1.2" phases=1 conn=Delta model=2 kv=0.240000000 kw = 0.0 pf=0.92 status=variable vmaxpu=1.5 vminpu=0.92 daily="RES2_26_DU"
New "Load.BT_299766255_1_M2" bus1="NODE#420683413.1.2" phases=1 conn=Delta model=3 kv=0.240000000 kw = 0.0 pf=0.92 status=variable vmaxpu=1.5 vminpu=0.92 daily="RES2_26_DU"
New "Load.BT_295227618_1_M1" bus1="NODE#420683290.1.2" phases=1 conn=Delta model=2 kv=0.240000000 kw = 0.066826 pf=0.92 status=variable vmaxpu=1.5 vminpu=0.92 daily="RES1_7_DU"
New "Load.BT_295227618_1_M2" bus1="NODE#420683290.1.2" phases=1 conn=Delta model=3 kv=0.240000000 kw = 0.066826 pf=0.92 status=variable vmaxpu=1.5 vminpu=0.92 daily="RES1_7_DU"
New "Load.BT_295227764_1_M1" bus1="NODE#420661223.1.2" phases=1 conn=Delta model=2 kv=0.240000000 kw = 0.0 pf=0.92 status=variable vmaxpu=1.5 vminpu=0.92 daily="RES1_11_DU"
New "Load.BT_295227764_1_M2" bus1="NODE#420661223.1.2" phases=1 conn=Delta model=3 kv=0.240000000 kw = 0.0 pf=0.92 status=variable vmaxpu=1.5 vminpu=0.92 daily="RES1_11_DU"
New "Load.BT_299571880_1_M1" bus1="NODE#420683290.1.2" phases=1 conn=Delta model=2 kv=0.240000000 kw = 0.0762715 pf=0.92 status=variable vmaxpu=1.5 vminpu=0.92 daily="RES1_26_DU"
New "Load.BT_299571880_1_M2" bus1="NODE#420683290.1.2" phases=1 conn=Delta model=3 kv=0.240000000 kw = 0.0762715 pf=0.92 status=variable vmaxpu=1.5 vminpu=0.92 daily="RES1_26_DU"
New "Load.BT_295227901_1_M1" bus1="NODE#420685225.1.2" phases=1 conn=Delta model=2 kv=0.240000000 kw = 0.0 pf=0.92 status=variable vmaxpu=1.5 vminpu=0.92 daily="RES1_2_DU"
New "Load.BT_295227901_1_M2" bus1="NODE#420685225.1.2" phases=1 conn=Delta model=3 kv=0.240000000 kw = 0.0 pf=0.92 status=variable vmaxpu=1.5 vminpu=0.92 daily="RES1_2_DU"
New "Load.BT_300507392_1_M1" bus1="NODE#420683413.1.2" phases=1 conn=Delta model=2 kv=0.240000000 kw = 0.0 pf=0.92 status=variable vmaxpu=1.5 vminpu=0.92 daily="RES2_10_DU"
New "Load.BT_300507392_1_M2" bus1="NODE#420683413.1.2" phases=1 conn=Delta model=3 kv=0.240000000 kw = 0.0 pf=0.92 status=variable vmaxpu=1.5 vminpu=0.92 daily="RES2_10_DU"
New "Load.BT_295227889_1_M1" bus1="NODE#420685225.1.2" phases=1 conn=Delta model=2 kv=0.240000000 kw = 0.0 pf=0.92 status=variable vmaxpu=1.5 vminpu=0.92 daily="RES2_15_DU"
New "Load.BT_295227889_1_M2" bus1="NODE#420685225.1.2" phases=1 conn=Delta model=3 kv=0.240000000 kw = 0.0 pf=0.92 status=variable vmaxpu=1.5 vminpu=0.92 daily="RES2_15_DU"
New "Load.BT_295227743_M1" bus1="NODE#420661223.1" phases=1 conn=Wye model=2 kv=0.120000000 kw = 0.0 pf=0.92 status=variable vmaxpu=1.5 vminpu=0.92 daily="RES2_6_DU"
New "Load.BT_295227743_M2" bus1="NODE#420661223.1" phases=1 conn=Wye model=3 kv=0.120000000 kw = 0.0 pf=0.92 status=variable vmaxpu=1.5 vminpu=0.92 daily="RES2_6_DU"
New "Load.BT_295227905_1_M1" bus1="NODE#420685225.1.2" phases=1 conn=Delta model=2 kv=0.240000000 kw = 0.0 pf=0.92 status=variable vmaxpu=1.5 vminpu=0.92 daily="RES1_1_DU"
New "Load.BT_295227905_1_M2" bus1="NODE#420685225.1.2" phases=1 conn=Delta model=3 kv=0.240000000 kw = 0.0 pf=0.92 status=variable vmaxpu=1.5 vminpu=0.92 daily="RES1_1_DU"
New "Load.BT_324074285_2_M1" bus1="NODE#420683413.1.2" phases=1 conn=Delta model=2 kv=0.240000000 kw = 0.0869585 pf=0.92 status=variable vmaxpu=1.5 vminpu=0.92 daily="RES1_3_DU"
New "Load.BT_324074285_2_M2" bus1="NODE#420683413.1.2" phases=1 conn=Delta model=3 kv=0.240000000 kw = 0.0869585 pf=0.92 status=variable vmaxpu=1.5 vminpu=0.92 daily="RES1_3_DU"
New "Load.BT_300143890_1_M1" bus1="NODE#420685225.2" phases=1 conn=Wye model=2 kv=0.120000000 kw = 0.0 pf=0.92 status=variable vmaxpu=1.5 vminpu=0.92 daily="RES1_1_DU"
New "Load.BT_300143890_1_M2" bus1="NODE#420685225.2" phases=1 conn=Wye model=3 kv=0.120000000 kw = 0.0 pf=0.92 status=variable vmaxpu=1.5 vminpu=0.92 daily="RES1_1_DU"
New "Load.BT_295227688_1_M1" bus1="NODE#420683299.1.2" phases=1 conn=Delta model=2 kv=0.240000000 kw = 0.0407325 pf=0.92 status=variable vmaxpu=1.5 vminpu=0.92 daily="RES1_18_DU"
New "Load.BT_295227688_1_M2" bus1="NODE#420683299.1.2" phases=1 conn=Delta model=3 kv=0.240000000 kw = 0.0407325 pf=0.92 status=variable vmaxpu=1.5 vminpu=0.92 daily="RES1_18_DU"
New "Load.BT_2081619779_M1" bus1="NODE#420683290.1.2.4" phases=1 conn=Delta model=2 kv=0.240000000 kw = 0.0 pf=0.92 status=variable vmaxpu=1.5 vminpu=0.92 daily="RES3_4_DU"
New "Load.BT_2081619779_M2" bus1="NODE#420683290.1.2.4" phases=1 conn=Delta model=3 kv=0.240000000 kw = 0.0 pf=0.92 status=variable vmaxpu=1.5 vminpu=0.92 daily="RES3_4_DU"
New "Load.BT_295227875_1_M1" bus1="NODE#420685225.1.2" phases=1 conn=Delta model=2 kv=0.240000000 kw = 0.0407325 pf=0.92 status=variable vmaxpu=1.5 vminpu=0.92 daily="RES1_18_DU"
New "Load.BT_295227875_1_M2" bus1="NODE#420685225.1.2" phases=1 conn=Delta model=3 kv=0.240000000 kw = 0.0407325 pf=0.92 status=variable vmaxpu=1.5 vminpu=0.92 daily="RES1_18_DU"
New "Load.BT_295227395_2_M1" bus1="NODE#420661517.1" phases=1 conn=Wye model=2 kv=0.120000000 kw = 0.0 pf=0.92 status=variable vmaxpu=1.5 vminpu=0.92 daily="RES1_2_DU"
New "Load.BT_295227395_2_M2" bus1="NODE#420661517.1" phases=1 conn=Wye model=3 kv=0.120000000 kw = 0.0 pf=0.92 status=variable vmaxpu=1.5 vminpu=0.92 daily="RES1_2_DU"
New "Load.BT_295227629_M1" bus1="NODE#420683290.2" phases=1 conn=Wye model=2 kv=0.120000000 kw = 0.0 pf=0.92 status=variable vmaxpu=1.5 vminpu=0.92 daily="RES1_17_DU"
New "Load.BT_295227629_M2" bus1="NODE#420683290.2" phases=1 conn=Wye model=3 kv=0.120000000 kw = 0.0 pf=0.92 status=variable vmaxpu=1.5 vminpu=0.92 daily="RES1_17_DU"
New "Load.BT_295227885_1_M1" bus1="NODE#420685225.1.2" phases=1 conn=Delta model=2 kv=0.240000000 kw = 0.0 pf=0.92 status=variable vmaxpu=1.5 vminpu=0.92 daily="RES2_23_DU"
New "Load.BT_295227885_1_M2" bus1="NODE#420685225.1.2" phases=1 conn=Delta model=3 kv=0.240000000 kw = 0.0 pf=0.92 status=variable vmaxpu=1.5 vminpu=0.92 daily="RES2_23_DU"
New "Load.BT_300904106_1_M1" bus1="NODE#420661517.1" phases=1 conn=Wye model=2 kv=0.120000000 kw = 0.093196 pf=0.92 status=variable vmaxpu=1.5 vminpu=0.92 daily="RES1_16_DU"
New "Load.BT_300904106_1_M2" bus1="NODE#420661517.1" phases=1 conn=Wye model=3 kv=0.120000000 kw = 0.093196 pf=0.92 status=variable vmaxpu=1.5 vminpu=0.92 daily="RES1_16_DU"
New "Load.BT_300142667_2_M1" bus1="NODE#420683299.2" phases=1 conn=Wye model=2 kv=0.120000000 kw = 0.1390485 pf=0.92 status=variable vmaxpu=1.5 vminpu=0.92 daily="RES1_5_DU"
New "Load.BT_300142667_2_M2" bus1="NODE#420683299.2" phases=1 conn=Wye model=3 kv=0.120000000 kw = 0.1390485 pf=0.92 status=variable vmaxpu=1.5 vminpu=0.92 daily="RES1_5_DU"
New "Load.BT_295227632_1_M1" bus1="NODE#420683290.1.2" phases=1 conn=Delta model=2 kv=0.240000000 kw = 0.0 pf=0.92 status=variable vmaxpu=1.5 vminpu=0.92 daily="RES2_1_DU"
New "Load.BT_295227632_1_M2" bus1="NODE#420683290.1.2" phases=1 conn=Delta model=3 kv=0.240000000 kw = 0.0 pf=0.92 status=variable vmaxpu=1.5 vminpu=0.92 daily="RES2_1_DU"
New "Load.BT_1352206418_2_M1" bus1="NODE#420661544.1.2.4" phases=1 conn=Delta model=2 kv=0.240000000 kw = 0.034743 pf=0.92 status=variable vmaxpu=1.5 vminpu=0.92 daily="RES1_23_DU"
New "Load.BT_1352206418_2_M2" bus1="NODE#420661544.1.2.4" phases=1 conn=Delta model=3 kv=0.240000000 kw = 0.034743 pf=0.92 status=variable vmaxpu=1.5 vminpu=0.92 daily="RES1_23_DU"
New "Load.BT_300904106_2_M1" bus1="NODE#420661517.1" phases=1 conn=Wye model=2 kv=0.120000000 kw = 0.0407325 pf=0.92 status=variable vmaxpu=1.5 vminpu=0.92 daily="RES1_18_DU"
New "Load.BT_300904106_2_M2" bus1="NODE#420661517.1" phases=1 conn=Wye model=3 kv=0.120000000 kw = 0.0407325 pf=0.92 status=variable vmaxpu=1.5 vminpu=0.92 daily="RES1_18_DU"
New "Load.BT_295227732_M1" bus1="NODE#420661544.1" phases=1 conn=Wye model=2 kv=0.120000000 kw = 0.1777065 pf=0.92 status=variable vmaxpu=1.5 vminpu=0.92 daily="RES1_2_DU"
New "Load.BT_295227732_M2" bus1="NODE#420661544.1" phases=1 conn=Wye model=3 kv=0.120000000 kw = 0.1777065 pf=0.92 status=variable vmaxpu=1.5 vminpu=0.92 daily="RES1_2_DU"
New "Load.BT_295227896_1_M1" bus1="NODE#420685225.1.2" phases=1 conn=Delta model=2 kv=0.240000000 kw = 0.038462 pf=0.92 status=variable vmaxpu=1.5 vminpu=0.92 daily="RES1_25_DU"
New "Load.BT_295227896_1_M2" bus1="NODE#420685225.1.2" phases=1 conn=Delta model=3 kv=0.240000000 kw = 0.038462 pf=0.92 status=variable vmaxpu=1.5 vminpu=0.92 daily="RES1_25_DU"
New "Load.BT_295227677_M1" bus1="NODE#420683299.2" phases=1 conn=Wye model=2 kv=0.120000000 kw = 0.0 pf=0.92 status=variable vmaxpu=1.5 vminpu=0.92 daily="RES2_4_DU"
New "Load.BT_295227677_M2" bus1="NODE#420683299.2" phases=1 conn=Wye model=3 kv=0.120000000 kw = 0.0 pf=0.92 status=variable vmaxpu=1.5 vminpu=0.92 daily="RES2_4_DU"
New "Load.BT_295227630_1_M1" bus1="NODE#420683290.1.2" phases=1 conn=Delta model=2 kv=0.240000000 kw = 0.0 pf=0.92 status=variable vmaxpu=1.5 vminpu=0.92 daily="RES1_16_DU"
New "Load.BT_295227630_1_M2" bus1="NODE#420683290.1.2" phases=1 conn=Delta model=3 kv=0.240000000 kw = 0.0 pf=0.92 status=variable vmaxpu=1.5 vminpu=0.92 daily="RES1_16_DU"
New "Load.BT_295227741_M1" bus1="NODE#420661223.2" phases=1 conn=Wye model=2 kv=0.120000000 kw = 0.093196 pf=0.92 status=variable vmaxpu=1.5 vminpu=0.92 daily="RES1_16_DU"
New "Load.BT_295227741_M2" bus1="NODE#420661223.2" phases=1 conn=Wye model=3 kv=0.120000000 kw = 0.093196 pf=0.92 status=variable vmaxpu=1.5 vminpu=0.92 daily="RES1_16_DU"
New "Load.BT_295227381_M1" bus1="NODE#420683413.1" phases=1 conn=Wye model=2 kv=0.120000000 kw = 0.074522 pf=0.92 status=variable vmaxpu=1.5 vminpu=0.92 daily="RES1_2_DU"
New "Load.BT_295227381_M2" bus1="NODE#420683413.1" phases=1 conn=Wye model=3 kv=0.120000000 kw = 0.074522 pf=0.92 status=variable vmaxpu=1.5 vminpu=0.92 daily="RES1_2_DU"
New "Load.BT_295227733_M1" bus1="NODE#420661544.2" phases=1 conn=Wye model=2 kv=0.120000000 kw = 0.0 pf=0.92 status=variable vmaxpu=1.5 vminpu=0.92 daily="RES1_2_DU"
New "Load.BT_295227733_M2" bus1="NODE#420661544.2" phases=1 conn=Wye model=3 kv=0.120000000 kw = 0.0 pf=0.92 status=variable vmaxpu=1.5 vminpu=0.92 daily="RES1_2_DU"
New "Load.BT_324074469_4_M1" bus1="NODE#420683290.1.2" phases=1 conn=Delta model=2 kv=0.240000000 kw = 0.0401675 pf=0.92 status=variable vmaxpu=1.5 vminpu=0.92 daily="RES1_21_DU"
New "Load.BT_324074469_4_M2" bus1="NODE#420683290.1.2" phases=1 conn=Delta model=3 kv=0.240000000 kw = 0.0401675 pf=0.92 status=variable vmaxpu=1.5 vminpu=0.92 daily="RES1_21_DU"
New "Load.BT_300904563_M1" bus1="NODE#420683290.1" phases=1 conn=Wye model=2 kv=0.120000000 kw = 0.0629875 pf=0.92 status=variable vmaxpu=1.5 vminpu=0.92 daily="RES1_20_DU"
New "Load.BT_300904563_M2" bus1="NODE#420683290.1" phases=1 conn=Wye model=3 kv=0.120000000 kw = 0.0629875 pf=0.92 status=variable vmaxpu=1.5 vminpu=0.92 daily="RES1_20_DU"
New "Load.BT_295227681_M1" bus1="NODE#420683299.2" phases=1 conn=Wye model=2 kv=0.120000000 kw = 0.1390485 pf=0.92 status=variable vmaxpu=1.5 vminpu=0.92 daily="RES1_5_DU"
New "Load.BT_295227681_M2" bus1="NODE#420683299.2" phases=1 conn=Wye model=3 kv=0.120000000 kw = 0.1390485 pf=0.92 status=variable vmaxpu=1.5 vminpu=0.92 daily="RES1_5_DU"
New "Load.BT_295227622_M1" bus1="NODE#420683290.2" phases=1 conn=Wye model=2 kv=0.120000000 kw = 0.0 pf=0.92 status=variable vmaxpu=1.5 vminpu=0.92 daily="RES4_18_DU"
New "Load.BT_295227622_M2" bus1="NODE#420683290.2" phases=1 conn=Wye model=3 kv=0.120000000 kw = 0.0 pf=0.92 status=variable vmaxpu=1.5 vminpu=0.92 daily="RES4_18_DU"
New "Load.BT_295227754_2_M1" bus1="NODE#420661223.1.2" phases=1 conn=Delta model=2 kv=0.240000000 kw = 0.080006 pf=0.92 status=variable vmaxpu=1.5 vminpu=0.92 daily="RES1_4_DU"
New "Load.BT_295227754_2_M2" bus1="NODE#420661223.1.2" phases=1 conn=Delta model=3 kv=0.240000000 kw = 0.080006 pf=0.92 status=variable vmaxpu=1.5 vminpu=0.92 daily="RES1_4_DU"
New "Load.BT_295227390_M1" bus1="NODE#420683413.2" phases=1 conn=Wye model=2 kv=0.120000000 kw = 0.0 pf=0.92 status=variable vmaxpu=1.5 vminpu=0.92 daily="RES3_7_DU"
New "Load.BT_295227390_M2" bus1="NODE#420683413.2" phases=1 conn=Wye model=3 kv=0.120000000 kw = 0.0 pf=0.92 status=variable vmaxpu=1.5 vminpu=0.92 daily="RES3_7_DU"
New "Load.BT_299955701_1_M1" bus1="NODE#420683290.1.2" phases=1 conn=Delta model=2 kv=0.240000000 kw = 0.0 pf=0.92 status=variable vmaxpu=1.5 vminpu=0.92 daily="RES2_1_DU"
New "Load.BT_299955701_1_M2" bus1="NODE#420683290.1.2" phases=1 conn=Delta model=3 kv=0.240000000 kw = 0.0 pf=0.92 status=variable vmaxpu=1.5 vminpu=0.92 daily="RES2_1_DU"
New "Load.BT_ _45_M1" bus1="NODE#420683290.1.2" phases=1 conn=Delta model=2 kv=0.240000000 kw = 0.0 pf=0.92 status=variable vmaxpu=1.5 vminpu=0.92 daily="RES1_25_DU"
New "Load.BT_ _45_M2" bus1="NODE#420683290.1.2" phases=1 conn=Delta model=3 kv=0.240000000 kw = 0.0 pf=0.92 status=variable vmaxpu=1.5 vminpu=0.92 daily="RES1_25_DU"
New "Load.BT_299764311_2_M1" bus1="NODE#420683299.1.2" phases=1 conn=Delta model=2 kv=0.240000000 kw = 0.0 pf=0.92 status=variable vmaxpu=1.5 vminpu=0.92 daily="RES2_17_DU"
New "Load.BT_299764311_2_M2" bus1="NODE#420683299.1.2" phases=1 conn=Delta model=3 kv=0.240000000 kw = 0.0 pf=0.92 status=variable vmaxpu=1.5 vminpu=0.92 daily="RES2_17_DU"
New "Load.BT_295227666_2_M1" bus1="NODE#420683299.1.2" phases=1 conn=Delta model=2 kv=0.240000000 kw = 0.0 pf=0.92 status=variable vmaxpu=1.5 vminpu=0.92 daily="RES2_5_DU"
New "Load.BT_295227666_2_M2" bus1="NODE#420683299.1.2" phases=1 conn=Delta model=3 kv=0.240000000 kw = 0.0 pf=0.92 status=variable vmaxpu=1.5 vminpu=0.92 daily="RES2_5_DU"
New "Load.BT_300142986_2_M1" bus1="NODE#420683299.1" phases=1 conn=Wye model=2 kv=0.120000000 kw = 0.083121 pf=0.92 status=variable vmaxpu=1.5 vminpu=0.92 daily="RES1_6_DU"
New "Load.BT_300142986_2_M2" bus1="NODE#420683299.1" phases=1 conn=Wye model=3 kv=0.120000000 kw = 0.083121 pf=0.92 status=variable vmaxpu=1.5 vminpu=0.92 daily="RES1_6_DU"
New "Load.BT_ _50_M1" bus1="NODE#420661517.1.2.4" phases=1 conn=Delta model=2 kv=0.240000000 kw = 0.0 pf=0.92 status=variable vmaxpu=1.5 vminpu=0.92 daily="RES1_26_DU"
New "Load.BT_ _50_M2" bus1="NODE#420661517.1.2.4" phases=1 conn=Delta model=3 kv=0.240000000 kw = 0.0 pf=0.92 status=variable vmaxpu=1.5 vminpu=0.92 daily="RES1_26_DU"
New "Load.BT_245488960_M1" bus1="NODE#420685225.1.4" phases=1 conn=Wye model=2 kv=0.120000000 kw = 0.0 pf=0.92 status=variable vmaxpu=1.5 vminpu=0.92 daily="COM1_26_DU"
New "Load.BT_245488960_M2" bus1="NODE#420685225.1.4" phases=1 conn=Wye model=3 kv=0.120000000 kw = 0.0 pf=0.92 status=variable vmaxpu=1.5 vminpu=0.92 daily="COM1_26_DU"
New "Load.BT_295227895_M1" bus1="NODE#420685225.1" phases=1 conn=Wye model=2 kv=0.120000000 kw = 0.0 pf=0.92 status=variable vmaxpu=1.5 vminpu=0.92 daily="RES3_19_DU"
New "Load.BT_295227895_M2" bus1="NODE#420685225.1" phases=1 conn=Wye model=3 kv=0.120000000 kw = 0.0 pf=0.92 status=variable vmaxpu=1.5 vminpu=0.92 daily="RES3_19_DU"
New "Load.BT_2081619616_M1" bus1="NODE#420661517.1.2.4" phases=1 conn=Delta model=2 kv=0.240000000 kw = 0.034743 pf=0.92 status=variable vmaxpu=1.5 vminpu=0.92 daily="RES1_23_DU"
New "Load.BT_2081619616_M2" bus1="NODE#420661517.1.2.4" phases=1 conn=Delta model=3 kv=0.240000000 kw = 0.034743 pf=0.92 status=variable vmaxpu=1.5 vminpu=0.92 daily="RES1_23_DU"
New "Load.BT_ _53_M1" bus1="NODE#420685225.1.4" phases=1 conn=Wye model=2 kv=0.120000000 kw = 0.3856 pf=0.92 status=variable vmaxpu=1.5 vminpu=0.92 daily="RES1_14_DU"
New "Load.BT_ _53_M2" bus1="NODE#420685225.1.4" phases=1 conn=Wye model=3 kv=0.120000000 kw = 0.3856 pf=0.92 status=variable vmaxpu=1.5 vminpu=0.92 daily="RES1_14_DU"
New "Load.BT_295227618_2_M1" bus1="NODE#420683290.1.2" phases=1 conn=Delta model=2 kv=0.240000000 kw = 0.0 pf=0.92 status=variable vmaxpu=1.5 vminpu=0.92 daily="RES2_4_DU"
New "Load.BT_295227618_2_M2" bus1="NODE#420683290.1.2" phases=1 conn=Delta model=3 kv=0.240000000 kw = 0.0 pf=0.92 status=variable vmaxpu=1.5 vminpu=0.92 daily="RES2_4_DU"
New "Load.BT_295227905_2_M1" bus1="NODE#420685225.1.2" phases=1 conn=Delta model=2 kv=0.240000000 kw = 0.0 pf=0.92 status=variable vmaxpu=1.5 vminpu=0.92 daily="RES2_4_DU"
New "Load.BT_295227905_2_M2" bus1="NODE#420685225.1.2" phases=1 conn=Delta model=3 kv=0.240000000 kw = 0.0 pf=0.92 status=variable vmaxpu=1.5 vminpu=0.92 daily="RES2_4_DU"
New "Load.BT_299764657_1_M1" bus1="NODE#420683413.1.2" phases=1 conn=Delta model=2 kv=0.240000000 kw = 0.0 pf=0.92 status=variable vmaxpu=1.5 vminpu=0.92 daily="RES2_27_DU"
New "Load.BT_299764657_1_M2" bus1="NODE#420683413.1.2" phases=1 conn=Delta model=3 kv=0.240000000 kw = 0.0 pf=0.92 status=variable vmaxpu=1.5 vminpu=0.92 daily="RES2_27_DU"
New "Load.BT_324072851_4_M1" bus1="NODE#420661544.1.2" phases=1 conn=Delta model=2 kv=0.240000000 kw = 0.0 pf=0.92 status=variable vmaxpu=1.5 vminpu=0.92 daily="RES1_2_DU"
New "Load.BT_324072851_4_M2" bus1="NODE#420661544.1.2" phases=1 conn=Delta model=3 kv=0.240000000 kw = 0.0 pf=0.92 status=variable vmaxpu=1.5 vminpu=0.92 daily="RES1_2_DU"
New "Load.BT_300309594_2_M1" bus1="NODE#420661544.1" phases=1 conn=Wye model=2 kv=0.120000000 kw = 0.0 pf=0.92 status=variable vmaxpu=1.5 vminpu=0.92 daily="RES2_10_DU"
New "Load.BT_300309594_2_M2" bus1="NODE#420661544.1" phases=1 conn=Wye model=3 kv=0.120000000 kw = 0.0 pf=0.92 status=variable vmaxpu=1.5 vminpu=0.92 daily="RES2_10_DU"
New "Load.BT_295227671_M1" bus1="NODE#420683299.1" phases=1 conn=Wye model=2 kv=0.120000000 kw = 0.0 pf=0.92 status=variable vmaxpu=1.5 vminpu=0.92 daily="RES2_25_DU"
New "Load.BT_295227671_M2" bus1="NODE#420683299.1" phases=1 conn=Wye model=3 kv=0.120000000 kw = 0.0 pf=0.92 status=variable vmaxpu=1.5 vminpu=0.92 daily="RES2_25_DU"
New "Load.BT_ _59_M1" bus1="NODE#420683299.1.2" phases=1 conn=Delta model=2 kv=0.240000000 kw = 0.0 pf=0.92 status=variable vmaxpu=1.5 vminpu=0.92 daily="RES2_28_DU"
New "Load.BT_ _59_M2" bus1="NODE#420683299.1.2" phases=1 conn=Delta model=3 kv=0.240000000 kw = 0.0 pf=0.92 status=variable vmaxpu=1.5 vminpu=0.92 daily="RES2_28_DU"
New "Load.BT_300144787_M1" bus1="NODE#420661517.1.2" phases=1 conn=Delta model=2 kv=0.240000000 kw = 0.0 pf=0.92 status=variable vmaxpu=1.5 vminpu=0.92 daily="RES2_14_DU"
New "Load.BT_300144787_M2" bus1="NODE#420661517.1.2" phases=1 conn=Delta model=3 kv=0.240000000 kw = 0.0 pf=0.92 status=variable vmaxpu=1.5 vminpu=0.92 daily="RES2_14_DU"
New "Load.BT_324074469_6_M1" bus1="NODE#420683290.1.2" phases=1 conn=Delta model=2 kv=0.240000000 kw = 0.0762715 pf=0.92 status=variable vmaxpu=1.5 vminpu=0.92 daily="RES1_26_DU"
New "Load.BT_324074469_6_M2" bus1="NODE#420683290.1.2" phases=1 conn=Delta model=3 kv=0.240000000 kw = 0.0762715 pf=0.92 status=variable vmaxpu=1.5 vminpu=0.92 daily="RES1_26_DU"
New "Load.BT_295227905_3_M1" bus1="NODE#420685225.1.2" phases=1 conn=Delta model=2 kv=0.240000000 kw = 0.0 pf=0.92 status=variable vmaxpu=1.5 vminpu=0.92 daily="RES1_14_DU"
New "Load.BT_295227905_3_M2" bus1="NODE#420685225.1.2" phases=1 conn=Delta model=3 kv=0.240000000 kw = 0.0 pf=0.92 status=variable vmaxpu=1.5 vminpu=0.92 daily="RES1_14_DU"
New "Load.BT_295227384_M1" bus1="NODE#420683413.1" phases=1 conn=Wye model=2 kv=0.120000000 kw = 0.083121 pf=0.92 status=variable vmaxpu=1.5 vminpu=0.92 daily="RES1_6_DU"
New "Load.BT_295227384_M2" bus1="NODE#420683413.1" phases=1 conn=Wye model=3 kv=0.120000000 kw = 0.083121 pf=0.92 status=variable vmaxpu=1.5 vminpu=0.92 daily="RES1_6_DU"
New "Load.BT_295227388_3_M1" bus1="NODE#420683413.1.2" phases=1 conn=Delta model=2 kv=0.240000000 kw = 0.0 pf=0.92 status=variable vmaxpu=1.5 vminpu=0.92 daily="RES1_16_DU"
New "Load.BT_295227388_3_M2" bus1="NODE#420683413.1.2" phases=1 conn=Delta model=3 kv=0.240000000 kw = 0.0 pf=0.92 status=variable vmaxpu=1.5 vminpu=0.92 daily="RES1_16_DU"
New "Load.BT_295227678_2_M1" bus1="NODE#420683299.1.2" phases=1 conn=Delta model=2 kv=0.240000000 kw = 0.083121 pf=0.92 status=variable vmaxpu=1.5 vminpu=0.92 daily="RES1_6_DU"
New "Load.BT_295227678_2_M2" bus1="NODE#420683299.1.2" phases=1 conn=Delta model=3 kv=0.240000000 kw = 0.083121 pf=0.92 status=variable vmaxpu=1.5 vminpu=0.92 daily="RES1_6_DU"
New "Load.BT_295227896_3_M1" bus1="NODE#420685225.1.2" phases=1 conn=Delta model=2 kv=0.240000000 kw = 0.083121 pf=0.92 status=variable vmaxpu=1.5 vminpu=0.92 daily="RES1_6_DU"
New "Load.BT_295227896_3_M2" bus1="NODE#420685225.1.2" phases=1 conn=Delta model=3 kv=0.240000000 kw = 0.083121 pf=0.92 status=variable vmaxpu=1.5 vminpu=0.92 daily="RES1_6_DU"
New "Load.BT_300902925_2_M1" bus1="NODE#420661544.1" phases=1 conn=Wye model=2 kv=0.120000000 kw = 0.0869585 pf=0.92 status=variable vmaxpu=1.5 vminpu=0.92 daily="RES1_3_DU"
New "Load.BT_300902925_2_M2" bus1="NODE#420661544.1" phases=1 conn=Wye model=3 kv=0.120000000 kw = 0.0869585 pf=0.92 status=variable vmaxpu=1.5 vminpu=0.92 daily="RES1_3_DU"
New "Load.BT_295227737_3_M1" bus1="NODE#420661223.1" phases=1 conn=Wye model=2 kv=0.120000000 kw = 0.0 pf=0.92 status=variable vmaxpu=1.5 vminpu=0.92 daily="RES2_17_DU"
New "Load.BT_295227737_3_M2" bus1="NODE#420661223.1" phases=1 conn=Wye model=3 kv=0.120000000 kw = 0.0 pf=0.92 status=variable vmaxpu=1.5 vminpu=0.92 daily="RES2_17_DU"
New "Load.BT_295227669_2_M1" bus1="NODE#420683299.1.2" phases=1 conn=Delta model=2 kv=0.240000000 kw = 0.083121 pf=0.92 status=variable vmaxpu=1.5 vminpu=0.92 daily="RES1_6_DU"
New "Load.BT_295227669_2_M2" bus1="NODE#420683299.1.2" phases=1 conn=Delta model=3 kv=0.240000000 kw = 0.083121 pf=0.92 status=variable vmaxpu=1.5 vminpu=0.92 daily="RES1_6_DU"
New "Load.BT_295227620_M1" bus1="NODE#420683290.2" phases=1 conn=Wye model=2 kv=0.120000000 kw = 0.0 pf=0.92 status=variable vmaxpu=1.5 vminpu=0.92 daily="RES2_1_DU"
New "Load.BT_295227620_M2" bus1="NODE#420683290.2" phases=1 conn=Wye model=3 kv=0.120000000 kw = 0.0 pf=0.92 status=variable vmaxpu=1.5 vminpu=0.92 daily="RES2_1_DU"
New "Load.BT_295227617_2_M1" bus1="NODE#420683290.1.2" phases=1 conn=Delta model=2 kv=0.240000000 kw = 0.0 pf=0.92 status=variable vmaxpu=1.5 vminpu=0.92 daily="RES1_1_DU"
New "Load.BT_295227617_2_M2" bus1="NODE#420683290.1.2" phases=1 conn=Delta model=3 kv=0.240000000 kw = 0.0 pf=0.92 status=variable vmaxpu=1.5 vminpu=0.92 daily="RES1_1_DU"
New "Load.BT_295227636_M1" bus1="NODE#420683290.1" phases=1 conn=Wye model=2 kv=0.120000000 kw = 0.0 pf=0.92 status=variable vmaxpu=1.5 vminpu=0.92 daily="RES2_9_DU"
New "Load.BT_295227636_M2" bus1="NODE#420683290.1" phases=1 conn=Wye model=3 kv=0.120000000 kw = 0.0 pf=0.92 status=variable vmaxpu=1.5 vminpu=0.92 daily="RES2_9_DU"
New "Load.BT_295227639_M1" bus1="NODE#420683290.1.2" phases=1 conn=Delta model=2 kv=0.240000000 kw = 0.0 pf=0.92 status=variable vmaxpu=1.5 vminpu=0.92 daily="RES3_18_DU"
New "Load.BT_295227639_M2" bus1="NODE#420683290.1.2" phases=1 conn=Delta model=3 kv=0.240000000 kw = 0.0 pf=0.92 status=variable vmaxpu=1.5 vminpu=0.92 daily="RES3_18_DU"
New "Load.BT_295227641_1_M1" bus1="NODE#420683290.1" phases=1 conn=Wye model=2 kv=0.120000000 kw = 0.0 pf=0.92 status=variable vmaxpu=1.5 vminpu=0.92 daily="RES1_10_DU"
New "Load.BT_295227641_1_M2" bus1="NODE#420683290.1" phases=1 conn=Wye model=3 kv=0.120000000 kw = 0.0 pf=0.92 status=variable vmaxpu=1.5 vminpu=0.92 daily="RES1_10_DU"
New "Load.BT_295227750_2_M1" bus1="NODE#420661223.1" phases=1 conn=Wye model=2 kv=0.120000000 kw = 0.0 pf=0.92 status=variable vmaxpu=1.5 vminpu=0.92 daily="RES2_4_DU"
New "Load.BT_295227750_2_M2" bus1="NODE#420661223.1" phases=1 conn=Wye model=3 kv=0.120000000 kw = 0.0 pf=0.92 status=variable vmaxpu=1.5 vminpu=0.92 daily="RES2_4_DU"
New "Load.BT_299574926_1_M1" bus1="NODE#420683290.1.2" phases=1 conn=Delta model=2 kv=0.240000000 kw = 0.0 pf=0.92 status=variable vmaxpu=1.5 vminpu=0.92 daily="RES2_15_DU"
New "Load.BT_299574926_1_M2" bus1="NODE#420683290.1.2" phases=1 conn=Delta model=3 kv=0.240000000 kw = 0.0 pf=0.92 status=variable vmaxpu=1.5 vminpu=0.92 daily="RES2_15_DU"
New "Load.BT_295227688_3_M1" bus1="NODE#420683299.1.2" phases=1 conn=Delta model=2 kv=0.240000000 kw = 0.0 pf=0.92 status=variable vmaxpu=1.5 vminpu=0.92 daily="RES2_7_DU"
New "Load.BT_295227688_3_M2" bus1="NODE#420683299.1.2" phases=1 conn=Delta model=3 kv=0.240000000 kw = 0.0 pf=0.92 status=variable vmaxpu=1.5 vminpu=0.92 daily="RES2_7_DU"
New "Load.BT_ _71_M1" bus1="NODE#420661544.1.2" phases=1 conn=Delta model=2 kv=0.240000000 kw = 0.0 pf=0.92 status=variable vmaxpu=1.5 vminpu=0.92 daily="RES4_11_DU"
New "Load.BT_ _71_M2" bus1="NODE#420661544.1.2" phases=1 conn=Delta model=3 kv=0.240000000 kw = 0.0 pf=0.92 status=variable vmaxpu=1.5 vminpu=0.92 daily="RES4_11_DU"
New "Load.BT_295227376_M1" bus1="NODE#420683413.1" phases=1 conn=Wye model=2 kv=0.120000000 kw = 0.4269415 pf=0.92 status=variable vmaxpu=1.5 vminpu=0.92 daily="RES2_2_DU"
New "Load.BT_295227376_M2" bus1="NODE#420683413.1" phases=1 conn=Wye model=3 kv=0.120000000 kw = 0.4269415 pf=0.92 status=variable vmaxpu=1.5 vminpu=0.92 daily="RES2_2_DU"
New "Load.BT_295227763_2_M1" bus1="NODE#420661223.2" phases=1 conn=Wye model=2 kv=0.120000000 kw = 0.0 pf=0.92 status=variable vmaxpu=1.5 vminpu=0.92 daily="RES2_20_DU"
New "Load.BT_295227763_2_M2" bus1="NODE#420661223.2" phases=1 conn=Wye model=3 kv=0.120000000 kw = 0.0 pf=0.92 status=variable vmaxpu=1.5 vminpu=0.92 daily="RES2_20_DU"
New "Load.BT_300904241_M1" bus1="NODE#420661544.1" phases=1 conn=Wye model=2 kv=0.120000000 kw = 0.0384775 pf=0.92 status=variable vmaxpu=1.5 vminpu=0.92 daily="RES1_19_DU"
New "Load.BT_300904241_M2" bus1="NODE#420661544.1" phases=1 conn=Wye model=3 kv=0.120000000 kw = 0.0384775 pf=0.92 status=variable vmaxpu=1.5 vminpu=0.92 daily="RES1_19_DU"
New "Load.BT_295227881_2_M1" bus1="NODE#420685225.1.2" phases=1 conn=Delta model=2 kv=0.240000000 kw = 0.0 pf=0.92 status=variable vmaxpu=1.5 vminpu=0.92 daily="RES2_17_DU"
New "Load.BT_295227881_2_M2" bus1="NODE#420685225.1.2" phases=1 conn=Delta model=3 kv=0.240000000 kw = 0.0 pf=0.92 status=variable vmaxpu=1.5 vminpu=0.92 daily="RES2_17_DU"
New "Load.BT_ _75_M1" bus1="NODE#420683299.1" phases=1 conn=Wye model=2 kv=0.120000000 kw = 0.0 pf=0.92 status=variable vmaxpu=1.5 vminpu=0.92 daily="RES2_22_DU"
New "Load.BT_ _75_M2" bus1="NODE#420683299.1" phases=1 conn=Wye model=3 kv=0.120000000 kw = 0.0 pf=0.92 status=variable vmaxpu=1.5 vminpu=0.92 daily="RES2_22_DU"
New "Load.BT_295227397_M1" bus1="NODE#420661517.1" phases=1 conn=Wye model=2 kv=0.120000000 kw = 0.0 pf=0.92 status=variable vmaxpu=1.5 vminpu=0.92 daily="RES2_2_DU"
New "Load.BT_295227397_M2" bus1="NODE#420661517.1" phases=1 conn=Wye model=3 kv=0.120000000 kw = 0.0 pf=0.92 status=variable vmaxpu=1.5 vminpu=0.92 daily="RES2_2_DU"
New "Load.BT_300142985_2_M1" bus1="NODE#420683299.1" phases=1 conn=Wye model=2 kv=0.120000000 kw = 0.0 pf=0.92 status=variable vmaxpu=1.5 vminpu=0.92 daily="RES2_6_DU"
New "Load.BT_300142985_2_M2" bus1="NODE#420683299.1" phases=1 conn=Wye model=3 kv=0.120000000 kw = 0.0 pf=0.92 status=variable vmaxpu=1.5 vminpu=0.92 daily="RES2_6_DU"
New "Load.BT_295227881_3_M1" bus1="NODE#420685225.1.2" phases=1 conn=Delta model=2 kv=0.240000000 kw = 0.0 pf=0.92 status=variable vmaxpu=1.5 vminpu=0.92 daily="RES2_13_DU"
New "Load.BT_295227881_3_M2" bus1="NODE#420685225.1.2" phases=1 conn=Delta model=3 kv=0.240000000 kw = 0.0 pf=0.92 status=variable vmaxpu=1.5 vminpu=0.92 daily="RES2_13_DU"
New "Load.BT_295227904_3_M1" bus1="NODE#420685225.1.2" phases=1 conn=Delta model=2 kv=0.240000000 kw = 0.0 pf=0.92 status=variable vmaxpu=1.5 vminpu=0.92 daily="RES1_10_DU"
New "Load.BT_295227904_3_M2" bus1="NODE#420685225.1.2" phases=1 conn=Delta model=3 kv=0.240000000 kw = 0.0 pf=0.92 status=variable vmaxpu=1.5 vminpu=0.92 daily="RES1_10_DU"
New "Load.BT_295227888_2_M1" bus1="NODE#420685225.1.2" phases=1 conn=Delta model=2 kv=0.240000000 kw = 0.0 pf=0.92 status=variable vmaxpu=1.5 vminpu=0.92 daily="RES3_1_DU"
New "Load.BT_295227888_2_M2" bus1="NODE#420685225.1.2" phases=1 conn=Delta model=3 kv=0.240000000 kw = 0.0 pf=0.92 status=variable vmaxpu=1.5 vminpu=0.92 daily="RES3_1_DU"
New "Load.BT_295227757_M1" bus1="NODE#420661223.1" phases=1 conn=Wye model=2 kv=0.120000000 kw = 0.0629875 pf=0.92 status=variable vmaxpu=1.5 vminpu=0.92 daily="RES1_20_DU"
New "Load.BT_295227757_M2" bus1="NODE#420661223.1" phases=1 conn=Wye model=3 kv=0.120000000 kw = 0.0629875 pf=0.92 status=variable vmaxpu=1.5 vminpu=0.92 daily="RES1_20_DU"
New "Load.BT_295227740_2_M1" bus1="NODE#420661223.1.2" phases=1 conn=Delta model=2 kv=0.240000000 kw = 0.0 pf=0.92 status=variable vmaxpu=1.5 vminpu=0.92 daily="RES2_2_DU"
New "Load.BT_295227740_2_M2" bus1="NODE#420661223.1.2" phases=1 conn=Delta model=3 kv=0.240000000 kw = 0.0 pf=0.92 status=variable vmaxpu=1.5 vminpu=0.92 daily="RES2_2_DU"
New "Load.BT_299574926_2_M1" bus1="NODE#420683290.1.2" phases=1 conn=Delta model=2 kv=0.240000000 kw = 0.0 pf=0.92 status=variable vmaxpu=1.5 vminpu=0.92 daily="RES2_16_DU"
New "Load.BT_299574926_2_M2" bus1="NODE#420683290.1.2" phases=1 conn=Delta model=3 kv=0.240000000 kw = 0.0 pf=0.92 status=variable vmaxpu=1.5 vminpu=0.92 daily="RES2_16_DU"
New "Load.BT_295227744_2_M1" bus1="NODE#420661223.2" phases=1 conn=Wye model=2 kv=0.120000000 kw = 0.080006 pf=0.92 status=variable vmaxpu=1.5 vminpu=0.92 daily="RES1_4_DU"
New "Load.BT_295227744_2_M2" bus1="NODE#420661223.2" phases=1 conn=Wye model=3 kv=0.120000000 kw = 0.080006 pf=0.92 status=variable vmaxpu=1.5 vminpu=0.92 daily="RES1_4_DU"
New "Load.BT_295227678_4_M1" bus1="NODE#420683299.1.2" phases=1 conn=Delta model=2 kv=0.240000000 kw = 0.0407325 pf=0.92 status=variable vmaxpu=1.5 vminpu=0.92 daily="RES1_18_DU"
New "Load.BT_295227678_4_M2" bus1="NODE#420683299.1.2" phases=1 conn=Delta model=3 kv=0.240000000 kw = 0.0407325 pf=0.92 status=variable vmaxpu=1.5 vminpu=0.92 daily="RES1_18_DU"
New "Load.BT_300143413_2_M1" bus1="NODE#420661544.1.2" phases=1 conn=Delta model=2 kv=0.240000000 kw = 0.0 pf=0.92 status=variable vmaxpu=1.5 vminpu=0.92 daily="RES3_20_DU"
New "Load.BT_300143413_2_M2" bus1="NODE#420661544.1.2" phases=1 conn=Delta model=3 kv=0.240000000 kw = 0.0 pf=0.92 status=variable vmaxpu=1.5 vminpu=0.92 daily="RES3_20_DU"
New "Load.BT_295227753_M1" bus1="NODE#420661223.1" phases=1 conn=Wye model=2 kv=0.120000000 kw = 0.0 pf=0.92 status=variable vmaxpu=1.5 vminpu=0.92 daily="RES2_14_DU"
New "Load.BT_295227753_M2" bus1="NODE#420661223.1" phases=1 conn=Wye model=3 kv=0.120000000 kw = 0.0 pf=0.92 status=variable vmaxpu=1.5 vminpu=0.92 daily="RES2_14_DU"
New "Load.BT_299574985_3_M1" bus1="NODE#420683299.1.2" phases=1 conn=Delta model=2 kv=0.240000000 kw = 0.0 pf=0.92 status=variable vmaxpu=1.5 vminpu=0.92 daily="RES1_2_DU"
New "Load.BT_299574985_3_M2" bus1="NODE#420683299.1.2" phases=1 conn=Delta model=3 kv=0.240000000 kw = 0.0 pf=0.92 status=variable vmaxpu=1.5 vminpu=0.92 daily="RES1_2_DU"
New "Load.BT_295227740_4_M1" bus1="NODE#420661223.1.2" phases=1 conn=Delta model=2 kv=0.240000000 kw = 0.0407325 pf=0.92 status=variable vmaxpu=1.5 vminpu=0.92 daily="RES1_18_DU"
New "Load.BT_295227740_4_M2" bus1="NODE#420661223.1.2" phases=1 conn=Delta model=3 kv=0.240000000 kw = 0.0407325 pf=0.92 status=variable vmaxpu=1.5 vminpu=0.92 daily="RES1_18_DU"
New "Load.BT_IP1467898256_M1" bus1="NODE#420661517.1.2" phases=1 conn=Delta model=2 kv=0.240000000 kw = 0.036552 pf=0.92 status=variable vmaxpu=1.5 vminpu=0.92 daily="IP_DU"
New "Load.BT_IP1467898256_M2" bus1="NODE#420661517.1.2" phases=1 conn=Delta model=3 kv=0.240000000 kw = 0.036552 pf=0.92 status=variable vmaxpu=1.5 vminpu=0.92 daily="IP_DU"
New "Load.BT_IP1467898323_M1" bus1="NODE#420683413.1.2" phases=1 conn=Delta model=2 kv=0.240000000 kw = 0.036552 pf=0.92 status=variable vmaxpu=1.5 vminpu=0.92 daily="IP_DU"
New "Load.BT_IP1467898323_M2" bus1="NODE#420683413.1.2" phases=1 conn=Delta model=3 kv=0.240000000 kw = 0.036552 pf=0.92 status=variable vmaxpu=1.5 vminpu=0.92 daily="IP_DU"
New "Load.BT_IP1467925566_M1" bus1="NODE#420661223.1.2" phases=1 conn=Delta model=2 kv=0.240000000 kw = 0.036552 pf=0.92 status=variable vmaxpu=1.5 vminpu=0.92 daily="IP_DU"
New "Load.BT_IP1467925566_M2" bus1="NODE#420661223.1.2" phases=1 conn=Delta model=3 kv=0.240000000 kw = 0.036552 pf=0.92 status=variable vmaxpu=1.5 vminpu=0.92 daily="IP_DU"
New "Load.BT_IP1467898888_M1" bus1="NODE#420683290.1.2" phases=1 conn=Delta model=2 kv=0.240000000 kw = 0.036552 pf=0.92 status=variable vmaxpu=1.5 vminpu=0.92 daily="IP_DU"
New "Load.BT_IP1467898888_M2" bus1="NODE#420683290.1.2" phases=1 conn=Delta model=3 kv=0.240000000 kw = 0.036552 pf=0.92 status=variable vmaxpu=1.5 vminpu=0.92 daily="IP_DU"
New "Load.BT_IP1468110691_M1" bus1="NODE#420685225.1.2" phases=1 conn=Delta model=2 kv=0.240000000 kw = 0.036552 pf=0.92 status=variable vmaxpu=1.5 vminpu=0.92 daily="IP_DU"
New "Load.BT_IP1468110691_M2" bus1="NODE#420685225.1.2" phases=1 conn=Delta model=3 kv=0.240000000 kw = 0.036552 pf=0.92 status=variable vmaxpu=1.5 vminpu=0.92 daily="IP_DU"
New "Load.BT_IP1467925883_M1" bus1="NODE#420685225.1.2" phases=1 conn=Delta model=2 kv=0.240000000 kw = 0.036552 pf=0.92 status=variable vmaxpu=1.5 vminpu=0.92 daily="IP_DU"
New "Load.BT_IP1467925883_M2" bus1="NODE#420685225.1.2" phases=1 conn=Delta model=3 kv=0.240000000 kw = 0.036552 pf=0.92 status=variable vmaxpu=1.5 vminpu=0.92 daily="IP_DU"
New "Load.BT_IP1467899588_M1" bus1="NODE#420661544.1.2" phases=1 conn=Delta model=2 kv=0.240000000 kw = 0.036552 pf=0.92 status=variable vmaxpu=1.5 vminpu=0.92 daily="IP_DU"
New "Load.BT_IP1467899588_M2" bus1="NODE#420661544.1.2" phases=1 conn=Delta model=3 kv=0.240000000 kw = 0.036552 pf=0.92 status=variable vmaxpu=1.5 vminpu=0.92 daily="IP_DU"
New "Load.BT_IP1467925560_M1" bus1="NODE#420661223.1.2" phases=1 conn=Delta model=2 kv=0.240000000 kw = 0.036552 pf=0.92 status=variable vmaxpu=1.5 vminpu=0.92 daily="IP_DU"
New "Load.BT_IP1467925560_M2" bus1="NODE#420661223.1.2" phases=1 conn=Delta model=3 kv=0.240000000 kw = 0.036552 pf=0.92 status=variable vmaxpu=1.5 vminpu=0.92 daily="IP_DU"
New "Load.BT_IP1467899532_M1" bus1="NODE#420683299.1.2" phases=1 conn=Delta model=2 kv=0.240000000 kw = 0.036552 pf=0.92 status=variable vmaxpu=1.5 vminpu=0.92 daily="IP_DU"
New "Load.BT_IP1467899532_M2" bus1="NODE#420683299.1.2" phases=1 conn=Delta model=3 kv=0.240000000 kw = 0.036552 pf=0.92 status=variable vmaxpu=1.5 vminpu=0.92 daily="IP_DU"
New "Load.BT_IP1467899337_M1" bus1="NODE#420683299.1.2" phases=1 conn=Delta model=2 kv=0.240000000 kw = 0.036552 pf=0.92 status=variable vmaxpu=1.5 vminpu=0.92 daily="IP_DU"
New "Load.BT_IP1467899337_M2" bus1="NODE#420683299.1.2" phases=1 conn=Delta model=3 kv=0.240000000 kw = 0.036552 pf=0.92 status=variable vmaxpu=1.5 vminpu=0.92 daily="IP_DU"
New "Load.BT_IP1467898393_M1" bus1="NODE#420661517.1.2" phases=1 conn=Delta model=2 kv=0.240000000 kw = 0.036552 pf=0.92 status=variable vmaxpu=1.5 vminpu=0.92 daily="IP_DU"
New "Load.BT_IP1467898393_M2" bus1="NODE#420661517.1.2" phases=1 conn=Delta model=3 kv=0.240000000 kw = 0.036552 pf=0.92 status=variable vmaxpu=1.5 vminpu=0.92 daily="IP_DU"
New "Load.BT_IP1467926472_M1" bus1="NODE#420685225.1.2" phases=1 conn=Delta model=2 kv=0.240000000 kw = 0.036552 pf=0.92 status=variable vmaxpu=1.5 vminpu=0.92 daily="IP_DU"
New "Load.BT_IP1467926472_M2" bus1="NODE#420685225.1.2" phases=1 conn=Delta model=3 kv=0.240000000 kw = 0.036552 pf=0.92 status=variable vmaxpu=1.5 vminpu=0.92 daily="IP_DU"
New "Load.BT_IP1467925567_M1" bus1="NODE#420661223.1.2" phases=1 conn=Delta model=2 kv=0.240000000 kw = 0.036552 pf=0.92 status=variable vmaxpu=1.5 vminpu=0.92 daily="IP_DU"
New "Load.BT_IP1467925567_M2" bus1="NODE#420661223.1.2" phases=1 conn=Delta model=3 kv=0.240000000 kw = 0.036552 pf=0.92 status=variable vmaxpu=1.5 vminpu=0.92 daily="IP_DU"
New "Load.BT_IP1467899363_M1" bus1="NODE#420683299.1.2" phases=1 conn=Delta model=2 kv=0.240000000 kw = 0.036552 pf=0.92 status=variable vmaxpu=1.5 vminpu=0.92 daily="IP_DU"
New "Load.BT_IP1467899363_M2" bus1="NODE#420683299.1.2" phases=1 conn=Delta model=3 kv=0.240000000 kw = 0.036552 pf=0.92 status=variable vmaxpu=1.5 vminpu=0.92 daily="IP_DU"
New "Load.BT_IP1467925417_M1" bus1="NODE#420683299.1.2" phases=1 conn=Delta model=2 kv=0.240000000 kw = 0.036552 pf=0.92 status=variable vmaxpu=1.5 vminpu=0.92 daily="IP_DU"
New "Load.BT_IP1467925417_M2" bus1="NODE#420683299.1.2" phases=1 conn=Delta model=3 kv=0.240000000 kw = 0.036552 pf=0.92 status=variable vmaxpu=1.5 vminpu=0.92 daily="IP_DU"
New "Load.BT_IP1467926037_M1" bus1="NODE#420685225.1.2" phases=1 conn=Delta model=2 kv=0.240000000 kw = 0.036552 pf=0.92 status=variable vmaxpu=1.5 vminpu=0.92 daily="IP_DU"
New "Load.BT_IP1467926037_M2" bus1="NODE#420685225.1.2" phases=1 conn=Delta model=3 kv=0.240000000 kw = 0.036552 pf=0.92 status=variable vmaxpu=1.5 vminpu=0.92 daily="IP_DU"
New "Load.BT_IP1467925561_M1" bus1="NODE#420661223.1.2" phases=1 conn=Delta model=2 kv=0.240000000 kw = 0.036552 pf=0.92 status=variable vmaxpu=1.5 vminpu=0.92 daily="IP_DU"
New "Load.BT_IP1467925561_M2" bus1="NODE#420661223.1.2" phases=1 conn=Delta model=3 kv=0.240000000 kw = 0.036552 pf=0.92 status=variable vmaxpu=1.5 vminpu=0.92 daily="IP_DU"
New "Load.BT_IP1467899184_M1" bus1="NODE#420683299.1.2" phases=1 conn=Delta model=2 kv=0.240000000 kw = 0.036552 pf=0.92 status=variable vmaxpu=1.5 vminpu=0.92 daily="IP_DU"
New "Load.BT_IP1467899184_M2" bus1="NODE#420683299.1.2" phases=1 conn=Delta model=3 kv=0.240000000 kw = 0.036552 pf=0.92 status=variable vmaxpu=1.5 vminpu=0.92 daily="IP_DU"
New "Load.BT_IP1467899356_M1" bus1="NODE#420683299.1.2" phases=1 conn=Delta model=2 kv=0.240000000 kw = 0.036552 pf=0.92 status=variable vmaxpu=1.5 vminpu=0.92 daily="IP_DU"
New "Load.BT_IP1467899356_M2" bus1="NODE#420683299.1.2" phases=1 conn=Delta model=3 kv=0.240000000 kw = 0.036552 pf=0.92 status=variable vmaxpu=1.5 vminpu=0.92 daily="IP_DU"
New "Load.BT_IP1467899505_M1" bus1="NODE#420661544.1.2" phases=1 conn=Delta model=2 kv=0.240000000 kw = 0.036552 pf=0.92 status=variable vmaxpu=1.5 vminpu=0.92 daily="IP_DU"
New "Load.BT_IP1467899505_M2" bus1="NODE#420661544.1.2" phases=1 conn=Delta model=3 kv=0.240000000 kw = 0.036552 pf=0.92 status=variable vmaxpu=1.5 vminpu=0.92 daily="IP_DU"
New "Load.BT_IP1467899256_M1" bus1="NODE#420683299.1.2" phases=1 conn=Delta model=2 kv=0.240000000 kw = 0.036552 pf=0.92 status=variable vmaxpu=1.5 vminpu=0.92 daily="IP_DU"
New "Load.BT_IP1467899256_M2" bus1="NODE#420683299.1.2" phases=1 conn=Delta model=3 kv=0.240000000 kw = 0.036552 pf=0.92 status=variable vmaxpu=1.5 vminpu=0.92 daily="IP_DU"
New "Load.BT_IP1467899525_M1" bus1="NODE#420683299.1.2" phases=1 conn=Delta model=2 kv=0.240000000 kw = 0.036552 pf=0.92 status=variable vmaxpu=1.5 vminpu=0.92 daily="IP_DU"
New "Load.BT_IP1467899525_M2" bus1="NODE#420683299.1.2" phases=1 conn=Delta model=3 kv=0.240000000 kw = 0.036552 pf=0.92 status=variable vmaxpu=1.5 vminpu=0.92 daily="IP_DU"
New "Load.BT_IP1467925563_M1" bus1="NODE#420661223.1.2" phases=1 conn=Delta model=2 kv=0.240000000 kw = 0.036552 pf=0.92 status=variable vmaxpu=1.5 vminpu=0.92 daily="IP_DU"
New "Load.BT_IP1467925563_M2" bus1="NODE#420661223.1.2" phases=1 conn=Delta model=3 kv=0.240000000 kw = 0.036552 pf=0.92 status=variable vmaxpu=1.5 vminpu=0.92 daily="IP_DU"
New "Load.BT_IP1467899467_M1" bus1="NODE#420683299.1.2" phases=1 conn=Delta model=2 kv=0.240000000 kw = 0.036552 pf=0.92 status=variable vmaxpu=1.5 vminpu=0.92 daily="IP_DU"
New "Load.BT_IP1467899467_M2" bus1="NODE#420683299.1.2" phases=1 conn=Delta model=3 kv=0.240000000 kw = 0.036552 pf=0.92 status=variable vmaxpu=1.5 vminpu=0.92 daily="IP_DU"
New "Load.BT_IP1467899428_M1" bus1="NODE#420683290.1.2" phases=1 conn=Delta model=2 kv=0.240000000 kw = 0.036552 pf=0.92 status=variable vmaxpu=1.5 vminpu=0.92 daily="IP_DU"
New "Load.BT_IP1467899428_M2" bus1="NODE#420683290.1.2" phases=1 conn=Delta model=3 kv=0.240000000 kw = 0.036552 pf=0.92 status=variable vmaxpu=1.5 vminpu=0.92 daily="IP_DU"
New "Load.BT_IP1467899152_M1" bus1="NODE#420683290.1.2" phases=1 conn=Delta model=2 kv=0.240000000 kw = 0.036552 pf=0.92 status=variable vmaxpu=1.5 vminpu=0.92 daily="IP_DU"
New "Load.BT_IP1467899152_M2" bus1="NODE#420683290.1.2" phases=1 conn=Delta model=3 kv=0.240000000 kw = 0.036552 pf=0.92 status=variable vmaxpu=1.5 vminpu=0.92 daily="IP_DU"
New "Load.BT_IP1467925562_M1" bus1="NODE#420661223.1.2" phases=1 conn=Delta model=2 kv=0.240000000 kw = 0.036552 pf=0.92 status=variable vmaxpu=1.5 vminpu=0.92 daily="IP_DU"
New "Load.BT_IP1467925562_M2" bus1="NODE#420661223.1.2" phases=1 conn=Delta model=3 kv=0.240000000 kw = 0.036552 pf=0.92 status=variable vmaxpu=1.5 vminpu=0.92 daily="IP_DU"
New "Load.BT_IP1467898329_M1" bus1="NODE#420683413.1.2" phases=1 conn=Delta model=2 kv=0.240000000 kw = 0.036552 pf=0.92 status=variable vmaxpu=1.5 vminpu=0.92 daily="IP_DU"
New "Load.BT_IP1467898329_M2" bus1="NODE#420683413.1.2" phases=1 conn=Delta model=3 kv=0.240000000 kw = 0.036552 pf=0.92 status=variable vmaxpu=1.5 vminpu=0.92 daily="IP_DU"
New "Load.BT_IP1467898497_M1" bus1="NODE#420683413.1.2" phases=1 conn=Delta model=2 kv=0.240000000 kw = 0.036552 pf=0.92 status=variable vmaxpu=1.5 vminpu=0.92 daily="IP_DU"
New "Load.BT_IP1467898497_M2" bus1="NODE#420683413.1.2" phases=1 conn=Delta model=3 kv=0.240000000 kw = 0.036552 pf=0.92 status=variable vmaxpu=1.5 vminpu=0.92 daily="IP_DU"
New "Load.BT_IP1467899435_M1" bus1="NODE#420683290.1.2" phases=1 conn=Delta model=2 kv=0.240000000 kw = 0.036552 pf=0.92 status=variable vmaxpu=1.5 vminpu=0.92 daily="IP_DU"
New "Load.BT_IP1467899435_M2" bus1="NODE#420683290.1.2" phases=1 conn=Delta model=3 kv=0.240000000 kw = 0.036552 pf=0.92 status=variable vmaxpu=1.5 vminpu=0.92 daily="IP_DU"
New "Load.BT_IP1467926129_M1" bus1="NODE#420685225.1.2" phases=1 conn=Delta model=2 kv=0.240000000 kw = 0.036552 pf=0.92 status=variable vmaxpu=1.5 vminpu=0.92 daily="IP_DU"
New "Load.BT_IP1467926129_M2" bus1="NODE#420685225.1.2" phases=1 conn=Delta model=3 kv=0.240000000 kw = 0.036552 pf=0.92 status=variable vmaxpu=1.5 vminpu=0.92 daily="IP_DU"
New "Load.BT_IP1467899130_M1" bus1="NODE#420683290.1.2" phases=1 conn=Delta model=2 kv=0.240000000 kw = 0.036552 pf=0.92 status=variable vmaxpu=1.5 vminpu=0.92 daily="IP_DU"
New "Load.BT_IP1467899130_M2" bus1="NODE#420683290.1.2" phases=1 conn=Delta model=3 kv=0.240000000 kw = 0.036552 pf=0.92 status=variable vmaxpu=1.5 vminpu=0.92 daily="IP_DU"
New "Load.BT_IP1467936383_M1" bus1="NODE#420683299.1.2" phases=1 conn=Delta model=2 kv=0.240000000 kw = 0.036552 pf=0.92 status=variable vmaxpu=1.5 vminpu=0.92 daily="IP_DU"
New "Load.BT_IP1467936383_M2" bus1="NODE#420683299.1.2" phases=1 conn=Delta model=3 kv=0.240000000 kw = 0.036552 pf=0.92 status=variable vmaxpu=1.5 vminpu=0.92 daily="IP_DU"
New "Load.BT_IP1467898135_M1" bus1="NODE#420683413.1.2" phases=1 conn=Delta model=2 kv=0.240000000 kw = 0.036552 pf=0.92 status=variable vmaxpu=1.5 vminpu=0.92 daily="IP_DU"
New "Load.BT_IP1467898135_M2" bus1="NODE#420683413.1.2" phases=1 conn=Delta model=3 kv=0.240000000 kw = 0.036552 pf=0.92 status=variable vmaxpu=1.5 vminpu=0.92 daily="IP_DU"
New "Load.BT_IP1467898881_M1" bus1="NODE#420683290.1.2" phases=1 conn=Delta model=2 kv=0.240000000 kw = 0.036552 pf=0.92 status=variable vmaxpu=1.5 vminpu=0.92 daily="IP_DU"
New "Load.BT_IP1467898881_M2" bus1="NODE#420683290.1.2" phases=1 conn=Delta model=3 kv=0.240000000 kw = 0.036552 pf=0.92 status=variable vmaxpu=1.5 vminpu=0.92 daily="IP_DU"
New "Load.BT_IP1467898199_M1" bus1="NODE#420661517.1.2" phases=1 conn=Delta model=2 kv=0.240000000 kw = 0.036552 pf=0.92 status=variable vmaxpu=1.5 vminpu=0.92 daily="IP_DU"
New "Load.BT_IP1467898199_M2" bus1="NODE#420661517.1.2" phases=1 conn=Delta model=3 kv=0.240000000 kw = 0.036552 pf=0.92 status=variable vmaxpu=1.5 vminpu=0.92 daily="IP_DU"
New "Load.BT_IP1467925599_M1" bus1="NODE#420661544.1.2" phases=1 conn=Delta model=2 kv=0.240000000 kw = 0.036552 pf=0.92 status=variable vmaxpu=1.5 vminpu=0.92 daily="IP_DU"
New "Load.BT_IP1467925599_M2" bus1="NODE#420661544.1.2" phases=1 conn=Delta model=3 kv=0.240000000 kw = 0.036552 pf=0.92 status=variable vmaxpu=1.5 vminpu=0.92 daily="IP_DU"
New "Load.BT_IP1467899330_M1" bus1="NODE#420661544.1.2" phases=1 conn=Delta model=2 kv=0.240000000 kw = 0.036552 pf=0.92 status=variable vmaxpu=1.5 vminpu=0.92 daily="IP_DU"
New "Load.BT_IP1467899330_M2" bus1="NODE#420661544.1.2" phases=1 conn=Delta model=3 kv=0.240000000 kw = 0.036552 pf=0.92 status=variable vmaxpu=1.5 vminpu=0.92 daily="IP_DU"
New "Load.BT_IP1467925559_M1" bus1="NODE#420661544.1.2" phases=1 conn=Delta model=2 kv=0.240000000 kw = 0.036552 pf=0.92 status=variable vmaxpu=1.5 vminpu=0.92 daily="IP_DU"
New "Load.BT_IP1467925559_M2" bus1="NODE#420661544.1.2" phases=1 conn=Delta model=3 kv=0.240000000 kw = 0.036552 pf=0.92 status=variable vmaxpu=1.5 vminpu=0.92 daily="IP_DU"
New "Load.BT_IP1467925565_M1" bus1="NODE#420661223.1.2" phases=1 conn=Delta model=2 kv=0.240000000 kw = 0.036552 pf=0.92 status=variable vmaxpu=1.5 vminpu=0.92 daily="IP_DU"
New "Load.BT_IP1467925565_M2" bus1="NODE#420661223.1.2" phases=1 conn=Delta model=3 kv=0.240000000 kw = 0.036552 pf=0.92 status=variable vmaxpu=1.5 vminpu=0.92 daily="IP_DU"
New "Load.BT_IP1467898562_M1" bus1="NODE#420661517.1.2" phases=1 conn=Delta model=2 kv=0.240000000 kw = 0.036552 pf=0.92 status=variable vmaxpu=1.5 vminpu=0.92 daily="IP_DU"
New "Load.BT_IP1467898562_M2" bus1="NODE#420661517.1.2" phases=1 conn=Delta model=3 kv=0.240000000 kw = 0.036552 pf=0.92 status=variable vmaxpu=1.5 vminpu=0.92 daily="IP_DU"
New "Load.BT_IP1467898176_M1" bus1="NODE#420683413.1.2" phases=1 conn=Delta model=2 kv=0.240000000 kw = 0.036552 pf=0.92 status=variable vmaxpu=1.5 vminpu=0.92 daily="IP_DU"
New "Load.BT_IP1467898176_M2" bus1="NODE#420683413.1.2" phases=1 conn=Delta model=3 kv=0.240000000 kw = 0.036552 pf=0.92 status=variable vmaxpu=1.5 vminpu=0.92 daily="IP_DU"
New "Load.BT_IP1467898250_M1" bus1="NODE#420683413.1.2" phases=1 conn=Delta model=2 kv=0.240000000 kw = 0.036552 pf=0.92 status=variable vmaxpu=1.5 vminpu=0.92 daily="IP_DU"
New "Load.BT_IP1467898250_M2" bus1="NODE#420683413.1.2" phases=1 conn=Delta model=3 kv=0.240000000 kw = 0.036552 pf=0.92 status=variable vmaxpu=1.5 vminpu=0.92 daily="IP_DU"
New "Load.BT_IP1467925966_M1" bus1="NODE#420685225.1.2" phases=1 conn=Delta model=2 kv=0.240000000 kw = 0.036552 pf=0.92 status=variable vmaxpu=1.5 vminpu=0.92 daily="IP_DU"
New "Load.BT_IP1467925966_M2" bus1="NODE#420685225.1.2" phases=1 conn=Delta model=3 kv=0.240000000 kw = 0.036552 pf=0.92 status=variable vmaxpu=1.5 vminpu=0.92 daily="IP_DU"
New "Load.BT_IP1467898286_M1" bus1="NODE#420683413.1.2" phases=1 conn=Delta model=2 kv=0.240000000 kw = 0.036552 pf=0.92 status=variable vmaxpu=1.5 vminpu=0.92 daily="IP_DU"
New "Load.BT_IP1467898286_M2" bus1="NODE#420683413.1.2" phases=1 conn=Delta model=3 kv=0.240000000 kw = 0.036552 pf=0.92 status=variable vmaxpu=1.5 vminpu=0.92 daily="IP_DU"
New "Load.BT_IP1467925822_M1" bus1="NODE#420685225.1.2" phases=1 conn=Delta model=2 kv=0.240000000 kw = 0.036552 pf=0.92 status=variable vmaxpu=1.5 vminpu=0.92 daily="IP_DU"
New "Load.BT_IP1467925822_M2" bus1="NODE#420685225.1.2" phases=1 conn=Delta model=3 kv=0.240000000 kw = 0.036552 pf=0.92 status=variable vmaxpu=1.5 vminpu=0.92 daily="IP_DU"
New "Load.BT_IP1469198714_M1" bus1="NODE#420683290.1.2" phases=1 conn=Delta model=2 kv=0.240000000 kw = 0.036552 pf=0.92 status=variable vmaxpu=1.5 vminpu=0.92 daily="IP_DU"
New "Load.BT_IP1469198714_M2" bus1="NODE#420683290.1.2" phases=1 conn=Delta model=3 kv=0.240000000 kw = 0.036552 pf=0.92 status=variable vmaxpu=1.5 vminpu=0.92 daily="IP_DU"
New "Load.BT_IP1468274446_M1" bus1="NODE#420661544.1.2" phases=1 conn=Delta model=2 kv=0.240000000 kw = 0.036552 pf=0.92 status=variable vmaxpu=1.5 vminpu=0.92 daily="IP_DU"
New "Load.BT_IP1468274446_M2" bus1="NODE#420661544.1.2" phases=1 conn=Delta model=3 kv=0.240000000 kw = 0.036552 pf=0.92 status=variable vmaxpu=1.5 vminpu=0.92 daily="IP_DU"
New "Load.BT_IP1467925856_M1" bus1="NODE#420685225.1.2" phases=1 conn=Delta model=2 kv=0.240000000 kw = 0.036552 pf=0.92 status=variable vmaxpu=1.5 vminpu=0.92 daily="IP_DU"
New "Load.BT_IP1467925856_M2" bus1="NODE#420685225.1.2" phases=1 conn=Delta model=3 kv=0.240000000 kw = 0.036552 pf=0.92 status=variable vmaxpu=1.5 vminpu=0.92 daily="IP_DU"
New "Load.BT_IP1467926073_M1" bus1="NODE#420685225.1.2" phases=1 conn=Delta model=2 kv=0.240000000 kw = 0.036552 pf=0.92 status=variable vmaxpu=1.5 vminpu=0.92 daily="IP_DU"
New "Load.BT_IP1467926073_M2" bus1="NODE#420685225.1.2" phases=1 conn=Delta model=3 kv=0.240000000 kw = 0.036552 pf=0.92 status=variable vmaxpu=1.5 vminpu=0.92 daily="IP_DU"
New "Load.BT_IP1467925391_M1" bus1="NODE#420683299.1.2" phases=1 conn=Delta model=2 kv=0.240000000 kw = 0.036552 pf=0.92 status=variable vmaxpu=1.5 vminpu=0.92 daily="IP_DU"
New "Load.BT_IP1467925391_M2" bus1="NODE#420683299.1.2" phases=1 conn=Delta model=3 kv=0.240000000 kw = 0.036552 pf=0.92 status=variable vmaxpu=1.5 vminpu=0.92 daily="IP_DU"
New "Load.BT_IP1467693441_M1" bus1="NODE#420661517.1.2" phases=1 conn=Delta model=2 kv=0.240000000 kw = 0.036552 pf=0.92 status=variable vmaxpu=1.5 vminpu=0.92 daily="IP_DU"
New "Load.BT_IP1467693441_M2" bus1="NODE#420661517.1.2" phases=1 conn=Delta model=3 kv=0.240000000 kw = 0.036552 pf=0.92 status=variable vmaxpu=1.5 vminpu=0.92 daily="IP_DU"
New "Load.BT_IP1467926066_M1" bus1="NODE#420685225.1.2" phases=1 conn=Delta model=2 kv=0.240000000 kw = 0.036552 pf=0.92 status=variable vmaxpu=1.5 vminpu=0.92 daily="IP_DU"
New "Load.BT_IP1467926066_M2" bus1="NODE#420685225.1.2" phases=1 conn=Delta model=3 kv=0.240000000 kw = 0.036552 pf=0.92 status=variable vmaxpu=1.5 vminpu=0.92 daily="IP_DU"
New "Load.BT_IP1467925890_M1" bus1="NODE#420685225.1.2" phases=1 conn=Delta model=2 kv=0.240000000 kw = 0.036552 pf=0.92 status=variable vmaxpu=1.5 vminpu=0.92 daily="IP_DU"
New "Load.BT_IP1467925890_M2" bus1="NODE#420685225.1.2" phases=1 conn=Delta model=3 kv=0.240000000 kw = 0.036552 pf=0.92 status=variable vmaxpu=1.5 vminpu=0.92 daily="IP_DU"
New "Load.BT_IP1467925384_M1" bus1="NODE#420683299.1.2" phases=1 conn=Delta model=2 kv=0.240000000 kw = 0.036552 pf=0.92 status=variable vmaxpu=1.5 vminpu=0.92 daily="IP_DU"
New "Load.BT_IP1467925384_M2" bus1="NODE#420683299.1.2" phases=1 conn=Delta model=3 kv=0.240000000 kw = 0.036552 pf=0.92 status=variable vmaxpu=1.5 vminpu=0.92 daily="IP_DU"
New "Load.BT_IP1467899282_M1" bus1="NODE#420683290.1.2" phases=1 conn=Delta model=2 kv=0.240000000 kw = 0.036552 pf=0.92 status=variable vmaxpu=1.5 vminpu=0.92 daily="IP_DU"
New "Load.BT_IP1467899282_M2" bus1="NODE#420683290.1.2" phases=1 conn=Delta model=3 kv=0.240000000 kw = 0.036552 pf=0.92 status=variable vmaxpu=1.5 vminpu=0.92 daily="IP_DU"
New "Load.BT_IP1467898967_M1" bus1="NODE#420683290.1.2" phases=1 conn=Delta model=2 kv=0.240000000 kw = 0.036552 pf=0.92 status=variable vmaxpu=1.5 vminpu=0.92 daily="IP_DU"
New "Load.BT_IP1467898967_M2" bus1="NODE#420683290.1.2" phases=1 conn=Delta model=3 kv=0.240000000 kw = 0.036552 pf=0.92 status=variable vmaxpu=1.5 vminpu=0.92 daily="IP_DU"
New "Load.BT_IP1467899073_M1" bus1="NODE#420683290.1.2" phases=1 conn=Delta model=2 kv=0.240000000 kw = 0.036552 pf=0.92 status=variable vmaxpu=1.5 vminpu=0.92 daily="IP_DU"
New "Load.BT_IP1467899073_M2" bus1="NODE#420683290.1.2" phases=1 conn=Delta model=3 kv=0.240000000 kw = 0.036552 pf=0.92 status=variable vmaxpu=1.5 vminpu=0.92 daily="IP_DU"
New "Load.BT_IP1467925372_M1" bus1="NODE#420683290.1.2" phases=1 conn=Delta model=2 kv=0.240000000 kw = 0.036552 pf=0.92 status=variable vmaxpu=1.5 vminpu=0.92 daily="IP_DU"
New "Load.BT_IP1467925372_M2" bus1="NODE#420683290.1.2" phases=1 conn=Delta model=3 kv=0.240000000 kw = 0.036552 pf=0.92 status=variable vmaxpu=1.5 vminpu=0.92 daily="IP_DU"
New "Load.BT_IP1467925564_M1" bus1="NODE#420661223.1.2" phases=1 conn=Delta model=2 kv=0.240000000 kw = 0.036552 pf=0.92 status=variable vmaxpu=1.5 vminpu=0.92 daily="IP_DU"
New "Load.BT_IP1467925564_M2" bus1="NODE#420661223.1.2" phases=1 conn=Delta model=3 kv=0.240000000 kw = 0.036552 pf=0.92 status=variable vmaxpu=1.5 vminpu=0.92 daily="IP_DU"
New "Load.BT_IP1468110840_M1" bus1="NODE#420685225.1.2" phases=1 conn=Delta model=2 kv=0.240000000 kw = 0.036552 pf=0.92 status=variable vmaxpu=1.5 vminpu=0.92 daily="IP_DU"
New "Load.BT_IP1468110840_M2" bus1="NODE#420685225.1.2" phases=1 conn=Delta model=3 kv=0.240000000 kw = 0.036552 pf=0.92 status=variable vmaxpu=1.5 vminpu=0.92 daily="IP_DU"
New "Load.BT_IP1467899329_M1" bus1="NODE#420661544.1.2" phases=1 conn=Delta model=2 kv=0.240000000 kw = 0.036552 pf=0.92 status=variable vmaxpu=1.5 vminpu=0.92 daily="IP_DU"
New "Load.BT_IP1467899329_M2" bus1="NODE#420661544.1.2" phases=1 conn=Delta model=3 kv=0.240000000 kw = 0.036552 pf=0.92 status=variable vmaxpu=1.5 vminpu=0.92 daily="IP_DU"
